Circuit: * D:\SynthMod\100-1129\simulation\vco.asc

WARNING: Node N009 is floating.

Direct Newton iteration for .op point succeeded.

Date: Mon Jan 29 17:06:22 2018
Total elapsed time: 1.072 seconds.

tnom = 27
temp = 27
method = modified trap
totiter = 177655
traniter = 177616
tranpoints = 37618
accept = 28217
rejected = 9401
matrix size = 10
fillins = 15
solver = Normal
Matrix Compiler1: 2.23 KB object code size  0.3/0.2/[0.2]
Matrix Compiler2: 1.32 KB object code size  0.1/0.2/[0.1]


