Circuit: * D:\SynthMod\500-1118\LTspice\BMCELL.asc

WARNING: Specified period is not longer than the sum of Trise, Tfall, and Ton for v3.  Increasing period to 0.011
Direct Newton iteration for .op point succeeded.

Date: Tue Apr 10 20:22:48 2018
Total elapsed time: 0.309 seconds.

tnom = 27
temp = 27
method = modified trap
totiter = 4084
traniter = 4072
tranpoints = 2037
accept = 2033
rejected = 4
matrix size = 40
fillins = 32
solver = Normal
Matrix Compiler1:     256 opcodes  0.7/[0.5]/0.8
Matrix Compiler2: off  [0.3]/0.4/0.4


