Circuit: * D:\SynthMod\500-1118\LTspice\bmcel6tranny.asc

WARNING: Specified period is not longer than the sum of Trise, Tfall, and Ton for v3.  Increasing period to 0.011
Direct Newton iteration for .op point succeeded.

Date: Fri Jul 13 15:16:56 2018
Total elapsed time: 0.267 seconds.

tnom = 27
temp = 27
method = modified trap
totiter = 4080
traniter = 4072
tranpoints = 2037
accept = 2033
rejected = 4
matrix size = 32
fillins = 28
solver = Normal
Matrix Compiler1: 3.58 KB object code size  0.5/0.3/[0.2]
Matrix Compiler2: 3.09 KB object code size  0.2/0.3/[0.2]


